Circuit: * C:\users\karsten\Documents\FAIRDEVICES\FTP\02-Devices\1-WaMacontrol\2-spice\powersupply.asc

.OP point found by inspection.

Date: Fri Jan 31 20:44:18 2025
Total elapsed time: 1.080 seconds.

tnom = 27
temp = 27
method = modified trap
totiter = 3350
traniter = 3350
tranpoints = 1487
accept = 1347
rejected = 140
matrix size = 12
fillins = 4
solver = Normal
Matrix Compiler1: 952 bytes object code size  1.0/0.8/[0.6]
Matrix Compiler2: off
